12
Benzene
C          1.38320       -0.22154        0.00551
C          0.50683       -1.30676       -0.00807
C         -0.87110       -1.09050       -0.01457
C         -1.37296        0.21085       -0.00455
C         -0.49657        1.29589        0.01049
C          0.88125        1.07974        0.01394
H          2.45673       -0.39012        0.00951
H          0.89773       -2.32073       -0.01369
H         -1.55378       -1.93606       -0.02709
H         -2.44645        0.37944       -0.00836
H         -0.88758        2.30989        0.01926
H          1.56395        1.92532        0.02378
